tests/main/reference/launch/outputIIDM.xml
<?xml version="1.0" encoding="ISO-8859-1" standalone="no"?>
<network xmlns="http://www.itesla_project.eu/schema/iidm/1_0" xmlns:as="http://www.itesla_project.eu/schema/iidm/ext/active-season/1_0" xmlns:bbsp="http://www.itesla_project.eu/schema/iidm/ext/busbarsectionposition/1_0" xmlns:clps="http://www.itesla_project.eu/schema/iidm/ext/current-limits-per-season/1_0" xmlns:cp="http://www.itesla_project.eu/schema/iidm/ext/connectable_position/1_0" xmlns:gapc="http://www.itesla_project.eu/schema/iidm/ext/generator_active_power_control/1_0" xmlns:gec="http://www.itesla_project.eu/schema/iidm/ext/generator_entsoe_category/1_0" xmlns:gs="http://www.itesla_project.eu/schema/iidm/ext/generator_startup/1_0" xmlns:hapc="http://www.itesla_project.eu/schema/iidm/ext/hvdc_angle_droop_active_power_control/1_0" xmlns:hopr="http://www.itesla_project.eu/schema/iidm/ext/hvdc_operator_active_power_range/1_0" xmlns:ld="http://www.itesla_project.eu/schema/iidm/ext/load_detail/1_0" xmlns:sa="http://www.itesla_project.eu/schema/iidm/ext/standby_automaton/1_0" id="ieee14bus" caseDate="2017-06-09T10:14:24.146+02:00" forecastDistance="0" sourceFormat="CIM1">
  <substation id="_BUS___10_SS" name="BUS   10_SS" country="AF">
    <voltageLevel id="_BUS___10_VL" name="BUS   10_VL" nominalV="13.800000000000001" topologyKind="BUS_BREAKER">
      <busBreakerTopology>
        <bus id="_BUS___10_TN" v="14.503601573250181" angle="-4.7836748238392106"/>
      </busBreakerTopology>
      <load id="_LOAD__10_EC" name="LOAD  10" loadType="UNDEFINED" p0="9" q0="5.7999999999999998" bus="_BUS___10_TN" connectableBus="_BUS___10_TN" p="9" q="5.7999999999999998"/>
    </voltageLevel>
  </substation>
  <substation id="_BUS___11_SS" name="BUS   11_SS" country="AF">
    <voltageLevel id="_BUS___11_VL" name="BUS   11_VL" nominalV="13.800000000000001" topologyKind="BUS_BREAKER">
      <busBreakerTopology>
        <bus id="_BUS___11_TN" v="14.585316574143237" angle="-4.4769487910948076"/>
      </busBreakerTopology>
      <load id="_LOAD__11_EC" name="LOAD  11" loadType="UNDEFINED" p0="3.5" q0="1.8" bus="_BUS___11_TN" connectableBus="_BUS___11_TN" p="3.5000000000000004" q="1.8000000000000003"/>
    </voltageLevel>
  </substation>
  <substation id="_BUS___12_SS" name="BUS   12_SS" country="AF">
    <voltageLevel id="_BUS___12_VL" name="BUS   12_VL" nominalV="13.800000000000001" topologyKind="BUS_BREAKER">
      <busBreakerTopology>
        <bus id="_BUS___12_TN" v="14.561603667257181" angle="-4.761858083693653"/>
      </busBreakerTopology>
      <load id="_LOAD__12_EC" name="LOAD  12" loadType="UNDEFINED" p0="6.0999999999999996" q0="1.6000000000000001" bus="_BUS___12_TN" connectableBus="_BUS___12_TN" p="6.0999999999999996" q="1.6000000000000001"/>
    </voltageLevel>
  </substation>
  <substation id="_BUS___13_SS" name="BUS   13_SS" country="AF">
    <voltageLevel id="_BUS___13_VL" name="BUS   13_VL" nominalV="13.800000000000001" topologyKind="BUS_BREAKER">
      <busBreakerTopology>
        <bus id="_BUS___13_TN" v="14.49526990803453" angle="-4.8425611784065286"/>
      </busBreakerTopology>
      <load id="_LOAD__13_EC" name="LOAD  13" loadType="UNDEFINED" p0="13.5" q0="5.7999999999999998" bus="_BUS___13_TN" connectableBus="_BUS___13_TN" p="13.5" q="5.7999999999999998"/>
    </voltageLevel>
  </substation>
  <substation id="_BUS___14_SS" name="BUS   14_SS" country="AF">
    <voltageLevel id="_BUS___14_VL" name="BUS   14_VL" nominalV="13.800000000000001" topologyKind="BUS_BREAKER">
      <busBreakerTopology>
        <bus id="_BUS___14_TN" v="14.290324067199995" angle="-5.7200004694928408"/>
      </busBreakerTopology>
      <load id="_LOAD__14_EC" name="LOAD  14" loadType="UNDEFINED" p0="14.9" q0="5" bus="_BUS___14_TN" connectableBus="_BUS___14_TN" p="14.899999999999999" q="5"/>
    </voltageLevel>
  </substation>
  <substation id="_BUS____1_SS" name="BUS    1_SS" country="AF">
    <voltageLevel id="_BUS____1_VL" name="BUS    1_VL" nominalV="69" topologyKind="BUS_BREAKER">
      <busBreakerTopology>
        <bus id="_BUS____1_TN" v="73.140000000001578" angle="10.311435501381414"/>
      </busBreakerTopology>
      <generator id="_GEN____1_SM" name="GEN    1" energySource="OTHER" minP="-9999" maxP="9999" voltageRegulatorOn="true" targetP="232.34630000000001" targetQ="-16.759" targetV="73.140000000000001" bus="_BUS____1_TN" connectableBus="_BUS____1_TN" p="-232.35495133776521" q="16.543417021626546">
        <minMaxReactiveLimits minQ="-999" maxQ="999"/>
      </generator>
    </voltageLevel>
  </substation>
  <substation id="_BUS____2_SS" name="BUS    2_SS" country="AF">
    <voltageLevel id="_BUS____2_VL" name="BUS    2_VL" nominalV="69" topologyKind="BUS_BREAKER">
      <busBreakerTopology>
        <bus id="_BUS____2_TN" v="72.105000000004623" angle="5.3297692255404421"/>
      </busBreakerTopology>
      <generator id="_GEN____2_SM" name="GEN    2" energySource="OTHER" minP="-9999" maxP="9999" voltageRegulatorOn="true" targetP="40" targetQ="42.399999999999999" targetV="72.105000000000004" bus="_BUS____2_TN" connectableBus="_BUS____2_TN" p="-40.00865133776523" q="-43.545292898752244">
        <minMaxReactiveLimits minQ="-40" maxQ="50"/>
      </generator>
      <load id="_LOAD___2_EC" name="LOAD   2" loadType="UNDEFINED" p0="21.699999999999999" q0="12.699999999999999" bus="_BUS____2_TN" connectableBus="_BUS____2_TN" p="21.699717822694247" q="12.699724743619459"/>
    </voltageLevel>
  </substation>
  <substation id="_BUS____3_SS" name="BUS    3_SS" country="AF">
    <voltageLevel id="_BUS____3_VL" name="BUS    3_VL" nominalV="69" topologyKind="BUS_BREAKER">
      <busBreakerTopology>
        <bus id="_BUS____3_TN" v="69.690000000000012" angle="-2.4119263645512694"/>
      </busBreakerTopology>
      <generator id="_GEN____3_SM" name="GEN    3" energySource="OTHER" minP="-9999" maxP="9999" voltageRegulatorOn="true" targetP="0" targetQ="23.399999999999999" targetV="69.689999999999998" bus="_BUS____3_TN" connectableBus="_BUS____3_TN" p="-0.0086513377652308945" q="-25.070106730938967">
        <minMaxReactiveLimits minQ="0" maxQ="40"/>
      </generator>
      <load id="_LOAD___3_EC" name="LOAD   3" loadType="UNDEFINED" p0="94.200000000000003" q0="19" bus="_BUS____3_TN" connectableBus="_BUS____3_TN" p="94.200000000000003" q="19"/>
    </voltageLevel>
  </substation>
  <substation id="_BUS____4_SS" name="BUS    4_SS" country="AF">
    <voltageLevel id="_BUS____9_VL" name="BUS    9_VL" nominalV="13.800000000000001" topologyKind="BUS_BREAKER">
      <busBreakerTopology>
        <bus id="_BUS____9_TN" v="14.571874843635847" angle="-4.6249332165266157"/>
      </busBreakerTopology>
      <load id="_LOAD___9_EC" name="LOAD   9" loadType="UNDEFINED" p0="29.5" q0="16.600000000000001" bus="_BUS____9_TN" connectableBus="_BUS____9_TN" p="29.5" q="16.600000000000001"/>
      <shunt id="_BANK___9_SC" name="BANK   9" bPerSection="0.099768999999999997" maximumSectionCount="1" currentSectionCount="1" bus="_BUS____9_TN" connectableBus="_BUS____9_TN" q="-21.184903212936792"/>
    </voltageLevel>
    <voltageLevel id="_BUS____7_VL" name="BUS    7_VL" nominalV="13.800000000000001" topologyKind="BUS_BREAKER">
      <busBreakerTopology>
        <bus id="_BUS____7_TN" v="14.648989657333439" angle="-3.0459512558924553"/>
      </busBreakerTopology>
    </voltageLevel>
    <voltageLevel id="_BUS____4_VL" name="BUS    4_VL" nominalV="69" topologyKind="BUS_BREAKER">
      <busBreakerTopology>
        <bus id="_BUS____4_TN" v="70.219493736109015" angle="-1.6911609935759572e-39"/>
      </busBreakerTopology>
      <load id="_LOAD___4_EC" name="LOAD   4" loadType="UNDEFINED" p0="47.799999999999997" q0="-3.8999999999999999" bus="_BUS____4_TN" connectableBus="_BUS____4_TN" p="47.800025617368597" q="-3.9000034835271169"/>
    </voltageLevel>
    <twoWindingsTransformer id="_BUS____4-BUS____9-1_PT" name="BUS    4-BUS    9-1" r="0" x="1.0591881000000001" g="0" b="0" ratedU1="69" ratedU2="13.800000000000001" voltageLevelId1="_BUS____4_VL" bus1="_BUS____4_TN" connectableBus1="_BUS____4_TN" voltageLevelId2="_BUS____9_VL" bus2="_BUS____9_TN" connectableBus2="_BUS____9_TN" p1="16.077456296952604" q1="-0.42746882554577986" p2="-16.077456296952604" q2="1.7317970313995119">
      <ratioTapChanger lowTapPosition="1" tapPosition="4" loadTapChangingCapabilities="false" regulating="false">
        <step r="0" x="0" g="0" b="0" rho="1.1111112000000001"/>
        <step r="0" x="0" g="0" b="0" rho="1.0834235999999999"/>
        <step r="0" x="0" g="0" b="0" rho="1.0570824999999999"/>
        <step r="0" x="0" g="0" b="0" rho="1.0319917000000001"/>
        <step r="0" x="0" g="0" b="0" rho="1.015744"/>
        <step r="0" x="0" g="0" b="0" rho="1"/>
        <step r="0" x="0" g="0" b="0" rho="0.98039220000000005"/>
        <step r="0" x="0" g="0" b="0" rho="0.96153849999999996"/>
        <step r="0" x="0" g="0" b="0" rho="0.94339629999999997"/>
        <step r="0" x="0" g="0" b="0" rho="0.92592589999999997"/>
        <step r="0" x="0" g="0" b="0" rho="0.90909090000000004"/>
      </ratioTapChanger>
      <currentLimits1 permanentLimit="836.74000000000001"/>
      <currentLimits2 permanentLimit="4183.6999999999998"/>
    </twoWindingsTransformer>
    <twoWindingsTransformer id="_BUS____4-BUS____7-1_PT" name="BUS    4-BUS    7-1" r="0" x="0.39824801999999998" g="0" b="0" ratedU1="69" ratedU2="13.800000000000001" voltageLevelId1="_BUS____4_VL" bus1="_BUS____4_TN" connectableBus1="_BUS____4_TN" voltageLevelId2="_BUS____7_VL" bus2="_BUS____7_TN" connectableBus2="_BUS____7_TN" p1="28.067166830709311" q1="-9.6807334614028928" p2="-28.067166830709311" q2="11.383165179467339">
      <ratioTapChanger lowTapPosition="1" tapPosition="5" loadTapChangingCapabilities="false" regulating="false">
        <step r="0" x="0" g="0" b="0" rho="1.1111112000000001"/>
        <step r="0" x="0" g="0" b="0" rho="1.0875475999999999"/>
        <step r="0" x="0" g="0" b="0" rho="1.0649626999999999"/>
        <step r="0" x="0" g="0" b="0" rho="1.0432965999999999"/>
        <step r="0" x="0" g="0" b="0" rho="1.0224948"/>
        <step r="0" x="0" g="0" b="0" rho="1"/>
        <step r="0" x="0" g="0" b="0" rho="0.98039215999999996"/>
        <step r="0" x="0" g="0" b="0" rho="0.96153849999999996"/>
        <step r="0" x="0" g="0" b="0" rho="0.94339629999999997"/>
        <step r="0" x="0" g="0" b="0" rho="0.92592589999999997"/>
        <step r="0" x="0" g="0" b="0" rho="0.90909090000000004"/>
      </ratioTapChanger>
      <currentLimits1 permanentLimit="836.74000000000001"/>
      <currentLimits2 permanentLimit="4183.6999999999998"/>
    </twoWindingsTransformer>
  </substation>
  <substation id="_BUS____5_SS" name="BUS    5_SS" country="AF">
    <voltageLevel id="_BUS____6_VL" name="BUS    6_VL" nominalV="13.800000000000001" topologyKind="BUS_BREAKER">
      <busBreakerTopology>
        <bus id="_BUS____6_TN" v="14.766000000000737" angle="-3.9072103975156889"/>
      </busBreakerTopology>
      <generator id="_GEN____6_SM" name="GEN    6" energySource="OTHER" minP="-9999" maxP="9999" voltageRegulatorOn="true" targetP="0" targetQ="12.199999999999999" targetV="14.766" bus="_BUS____6_TN" connectableBus="_BUS____6_TN" p="-0.0086513377652308997" q="-12.728065581269718">
        <minMaxReactiveLimits minQ="-6" maxQ="24"/>
      </generator>
      <load id="_LOAD___6_EC" name="LOAD   6" loadType="UNDEFINED" p0="11.199999999999999" q0="7.5" bus="_BUS____6_TN" connectableBus="_BUS____6_TN" p="11.199999999999999" q="7.5"/>
    </voltageLevel>
    <voltageLevel id="_BUS____5_VL" name="BUS    5_VL" nominalV="69" topologyKind="BUS_BREAKER">
      <busBreakerTopology>
        <bus id="_BUS____5_TN" v="70.346665924508699" angle="1.5388891060449892"/>
      </busBreakerTopology>
      <load id="_LOAD___5_EC" name="LOAD   5" loadType="UNDEFINED" p0="7.5999999999999996" q0="1.6000000000000001" bus="_BUS____5_TN" connectableBus="_BUS____5_TN" p="7.6000055253379131" q="1.600001938710079"/>
    </voltageLevel>
    <twoWindingsTransformer id="_BUS____5-BUS____6-1_PT" name="BUS    5-BUS    6-1" r="0" x="0.47994804000000002" g="0" b="0" ratedU1="69" ratedU2="13.800000000000001" voltageLevelId1="_BUS____5_VL" bus1="_BUS____5_TN" connectableBus1="_BUS____5_TN" voltageLevelId2="_BUS____6_VL" bus2="_BUS____6_TN" connectableBus2="_BUS____6_TN" p1="44.079334129711903" q1="12.471349750190971" p2="-44.079334129711903" q2="-8.0516519293000499">
      <ratioTapChanger lowTapPosition="1" tapPosition="3" loadTapChangingCapabilities="false" regulating="false">
        <step r="0" x="0" g="0" b="0" rho="1.1111112000000001"/>
        <step r="0" x="0" g="0" b="0" rho="1.0917030999999999"/>
        <step r="0" x="0" g="0" b="0" rho="1.0729614000000001"/>
        <step r="0" x="0" g="0" b="0" rho="1.0474859999999999"/>
        <step r="0" x="0" g="0" b="0" rho="1.0231923999999999"/>
        <step r="0" x="0" g="0" b="0" rho="1"/>
        <step r="0" x="0" g="0" b="0" rho="0.98039220000000005"/>
        <step r="0" x="0" g="0" b="0" rho="0.96153849999999996"/>
        <step r="0" x="0" g="0" b="0" rho="0.94339629999999997"/>
        <step r="0" x="0" g="0" b="0" rho="0.92592589999999997"/>
        <step r="0" x="0" g="0" b="0" rho="0.90909090000000004"/>
      </ratioTapChanger>
      <currentLimits1 permanentLimit="836.74000000000001"/>
      <currentLimits2 permanentLimit="4183.6999999999998"/>
    </twoWindingsTransformer>
  </substation>
  <substation id="_BUS____8_SS" name="BUS    8_SS" country="AF">
    <voltageLevel id="_BUS____8_VL" name="BUS    8_VL" nominalV="13.800000000000001" topologyKind="BUS_BREAKER">
      <busBreakerTopology>
        <bus id="_BUS____8_TN" v="15.042000000002284" angle="-3.0451966270729716"/>
      </busBreakerTopology>
      <generator id="_GEN____8_SM" name="GEN    8" energySource="OTHER" minP="-9999" maxP="9999" voltageRegulatorOn="true" targetP="0" targetQ="17.399999999999999" targetV="15.042" bus="_BUS____8_TN" connectableBus="_BUS____8_TN" p="-0.0086513377652308945" q="-17.622552893051346">
        <minMaxReactiveLimits minQ="-6" maxQ="24"/>
      </generator>
    </voltageLevel>
  </substation>
  <line id="_BUS___10-BUS___11-1_AC" name="BUS   10-BUS   11-1" r="0.15625600000000001" x="0.36577799999999999" g1="0" b1="0" g2="0" b2="0" voltageLevelId1="_BUS___10_VL" bus1="_BUS___10_TN" connectableBus1="_BUS___10_TN" voltageLevelId2="_BUS___11_VL" bus2="_BUS___11_TN" connectableBus2="_BUS___11_TN" p1="-3.7857337233544603" q1="-1.6146050121605644" p2="3.7983161905042926" q2="1.6440591750031506">
    <currentLimits1 permanentLimit="4183.6999999999998"/>
  </line>
  <line id="_BUS___12-BUS___13-1_AC" name="BUS   12-BUS   13-1" r="0.42071999999999998" x="0.38065100000000002" g1="0" b1="0" g2="0" b2="0" voltageLevelId1="_BUS___12_VL" bus1="_BUS___12_TN" connectableBus1="_BUS___12_TN" voltageLevelId2="_BUS___13_VL" bus2="_BUS___13_TN" connectableBus2="_BUS___13_TN" p1="1.6142940711856359" q1="0.75389134014061765" p2="-1.6079957852652593" q2="-0.74819289739038641">
    <currentLimits1 permanentLimit="4183.6999999999998"/>
  </line>
  <line id="_BUS___13-BUS___14-1_AC" name="BUS   13-BUS   14-1" r="0.325519" x="0.66276900000000005" g1="0" b1="0" g2="0" b2="0" voltageLevelId1="_BUS___13_VL" bus1="_BUS___13_TN" connectableBus1="_BUS___13_TN" voltageLevelId2="_BUS___14_VL" bus2="_BUS___14_TN" connectableBus2="_BUS___14_TN" p1="5.6440979176666781" q1="1.7468736188386638" p2="-5.5900173376215863" q2="-1.6367635117299968">
    <currentLimits1 permanentLimit="4183.6999999999998"/>
  </line>
  <line id="_BUS____1-BUS____2-1_AC" name="BUS    1-BUS    2-1" r="0.922682" x="2.8170799999999998" g1="0" b1="0.00055450499999999995" g2="0" b2="0.00055450499999999995" voltageLevelId1="_BUS____1_VL" bus1="_BUS____1_TN" connectableBus1="_BUS____1_TN" voltageLevelId2="_BUS____2_VL" bus2="_BUS____2_TN" connectableBus2="_BUS____2_TN" p1="156.85516162527736" q1="-20.39786041250461" p2="-152.55909954698811" q2="27.665105613044126">
    <currentLimits1 permanentLimit="836.74000000000001"/>
  </line>
  <line id="_BUS____1-BUS____5-1_AC" name="BUS    1-BUS    5-1" r="2.5723699999999998" x="10.6189" g1="0" b1="0.00051670000000000004" g2="0" b2="0.00051670000000000004" voltageLevelId1="_BUS____1_VL" bus1="_BUS____1_TN" connectableBus1="_BUS____1_TN" voltageLevelId2="_BUS____5_VL" bus2="_BUS____5_TN" connectableBus2="_BUS____5_TN" p1="75.499789712479625" q1="3.8544433908403133" p2="-72.737687870727385" q2="2.2266462147447474">
    <currentLimits1 permanentLimit="836.74000000000001"/>
  </line>
  <line id="_BUS____2-BUS____3-1_AC" name="BUS    2-BUS    3-1" r="2.23719" x="9.4253499999999999" g1="0" b1="0.00045998749999999998" g2="0" b2="0.00045998749999999998" voltageLevelId1="_BUS____2_VL" bus1="_BUS____2_TN" connectableBus1="_BUS____2_TN" voltageLevelId2="_BUS____3_VL" bus2="_BUS____3_TN" connectableBus2="_BUS____3_TN" p1="73.230251390823014" q1="3.5609512518659394" p2="-70.907444109997741" q2="1.599552195233376">
    <currentLimits1 permanentLimit="836.74000000000001"/>
  </line>
  <line id="_BUS____2-BUS____4-1_AC" name="BUS    2-BUS    4-1" r="2.7666200000000001" x="8.3946000000000005" g1="0" b1="0.00035706799999999999" g2="0" b2="0.00035706799999999999" voltageLevelId1="_BUS____2_VL" bus1="_BUS____2_TN" connectableBus1="_BUS____2_TN" voltageLevelId2="_BUS____4_VL" bus2="_BUS____4_TN" connectableBus2="_BUS____4_TN" p1="56.125798980621909" q1="-1.5507757225980356" p2="-54.449479840574142" q2="3.020070827416002">
    <currentLimits1 permanentLimit="836.74000000000001"/>
  </line>
  <line id="_BUS____2-BUS____5-1_AC" name="BUS    2-BUS    5-1" r="2.7113900000000002" x="8.2784300000000002" g1="0" b1="0.000363369" g2="0" b2="0.000363369" voltageLevelId1="_BUS____2_VL" bus1="_BUS____2_TN" connectableBus1="_BUS____2_TN" voltageLevelId2="_BUS____5_VL" bus2="_BUS____5_TN" connectableBus2="_BUS____5_TN" p1="41.511982690665498" q1="1.170287013124935" p2="-40.608414699494894" q2="-2.0988988208285662">
    <currentLimits1 permanentLimit="836.74000000000001"/>
  </line>
  <line id="_BUS____3-BUS____4-1_AC" name="BUS    3-BUS    4-1" r="3.19035" x="8.1427399999999999" g1="0" b1="0.00013442550000000001" g2="0" b2="0.00013442550000000001" voltageLevelId1="_BUS____3_VL" bus1="_BUS____3_TN" connectableBus1="_BUS____3_TN" voltageLevelId2="_BUS____4_VL" bus2="_BUS____4_TN" connectableBus2="_BUS____4_TN" p1="-23.283904552234816" q1="4.47055453570926" p2="23.657278098379422" q2="-4.8332781048638491">
    <currentLimits1 permanentLimit="836.74000000000001"/>
  </line>
  <line id="_BUS____4-BUS____5-1_AC" name="BUS    4-BUS    5-1" r="0.63559299999999996" x="2.0048599999999999" g1="0" b1="0" g2="0" b2="0" voltageLevelId1="_BUS____4_VL" bus1="_BUS____4_TN" connectableBus1="_BUS____4_TN" voltageLevelId2="_BUS____5_VL" bus2="_BUS____5_TN" connectableBus2="_BUS____5_TN" p1="-61.152447002829376" q1="15.821413047922523" p2="61.666762915174012" q2="-14.199099082817067">
    <currentLimits1 permanentLimit="836.74000000000001"/>
  </line>
  <line id="_BUS____6-BUS___11-1_AC" name="BUS    6-BUS   11-1" r="0.18088000000000001" x="0.37878499999999998" g1="0" b1="0" g2="0" b2="0" voltageLevelId1="_BUS____6_VL" bus1="_BUS____6_TN" connectableBus1="_BUS____6_TN" voltageLevelId2="_BUS___11_VL" bus2="_BUS___11_TN" connectableBus2="_BUS___11_TN" p1="7.353691944792816" q1="3.5600228254239363" p2="-7.2983161905045062" q2="-3.4440591750032263">
    <currentLimits1 permanentLimit="4183.6999999999998"/>
  </line>
  <line id="_BUS____6-BUS___12-1_AC" name="BUS    6-BUS   12-1" r="0.23407" x="0.48716500000000001" g1="0" b1="0" g2="0" b2="0" voltageLevelId1="_BUS____6_VL" bus1="_BUS____6_TN" connectableBus1="_BUS____6_TN" voltageLevelId2="_BUS___12_VL" bus2="_BUS___12_TN" connectableBus2="_BUS___12_TN" p1="7.7861036264779875" q1="2.5033470670760964" p2="-7.7142940711861288" q2="-2.3538913401407413">
    <currentLimits1 permanentLimit="4183.6999999999998"/>
  </line>
  <line id="_BUS____6-BUS___13-1_AC" name="BUS    6-BUS   13-1" r="0.125976" x="0.248086" g1="0" b1="0" g2="0" b2="0" voltageLevelId1="_BUS____6_VL" bus1="_BUS____6_TN" connectableBus1="_BUS____6_TN" voltageLevelId2="_BUS___13_VL" bus2="_BUS___13_TN" connectableBus2="_BUS___13_TN" p1="17.748189896226076" q1="7.2163476181262762" p2="-17.53610213240286" q2="-6.7986807214487701">
    <currentLimits1 permanentLimit="4183.6999999999998"/>
  </line>
  <line id="_BUS____7-BUS____8-1_AC" name="BUS    7-BUS    8-1" r="0" x="0.33545999999999998" g1="0" b1="0" g2="0" b2="0" voltageLevelId1="_BUS____7_VL" bus1="_BUS____7_TN" connectableBus1="_BUS____7_TN" voltageLevelId2="_BUS____8_VL" bus2="_BUS____8_TN" connectableBus2="_BUS____8_TN" p1="-0.0086513377772793817" q1="-17.162118958651011" p2="0.0086513377772792083" q2="17.62255289315457">
    <currentLimits1 permanentLimit="4183.6999999999998"/>
  </line>
  <line id="_BUS____7-BUS____9-1_AC" name="BUS    7-BUS    9-1" r="0" x="0.20950299999999999" g1="0" b1="0" g2="0" b2="0" voltageLevelId1="_BUS____7_VL" bus1="_BUS____7_TN" connectableBus1="_BUS____7_TN" voltageLevelId2="_BUS____9_VL" bus2="_BUS____9_TN" connectableBus2="_BUS____9_TN" p1="28.075818168486609" q1="5.7789537791838574" p2="-28.075818168486609" q2="-4.9767944538956765">
    <currentLimits1 permanentLimit="4183.6999999999998"/>
  </line>
  <line id="_BUS____9-BUS___10-1_AC" name="BUS    9-BUS   10-1" r="0.060579000000000001" x="0.16092200000000001" g1="0" b1="0" g2="0" b2="0" voltageLevelId1="_BUS____9_VL" bus1="_BUS____9_TN" connectableBus1="_BUS____9_TN" voltageLevelId2="_BUS___10_VL" bus2="_BUS___10_TN" connectableBus2="_BUS___10_TN" p1="5.2271409791496897" q1="4.2195953357534517" p2="-5.2142662766462005" q2="-4.1853949878397101">
    <currentLimits1 permanentLimit="4183.6999999999998"/>
  </line>
  <line id="_BUS____9-BUS___14-1_AC" name="BUS    9-BUS   14-1" r="0.24206800000000001" x="0.51491200000000004" g1="0" b1="0" g2="0" b2="0" voltageLevelId1="_BUS____9_VL" bus1="_BUS____9_TN" connectableBus1="_BUS____9_TN" voltageLevelId2="_BUS___14_VL" bus2="_BUS___14_TN" connectableBus2="_BUS___14_TN" p1="9.4261334862873589" q1="3.6103052996786995" p2="-9.3099826623795394" q2="-3.3632364882702355">
    <currentLimits1 permanentLimit="4183.6999999999998"/>
  </line>
</network>
